!-Generator IDFEditor 1.54
!-Option SortedOrder

!-NOTE: All comments with '!-' are ignored by the IDFEditor and are generated automatically.
!-      Use '!' comments if they need to be retained when using the IDFEditor.


!-   ===========  ALL OBJECTS IN CLASS: VERSION ===========

Version,
    24.2;                    !- Version Identifier


!-   ===========  ALL OBJECTS IN CLASS: SIMULATIONCONTROL ===========

SimulationControl,
    Yes,                     !- Do Zone Sizing Calculation
    Yes,                     !- Do System Sizing Calculation
    No,                      !- Do Plant Sizing Calculation
    No,                      !- Run Simulation for Sizing Periods
    Yes,                     !- Run Simulation for Weather File Run Periods
    No,                      !- Do HVAC Sizing Simulation for Sizing Periods
    1;                       !- Maximum Number of HVAC Sizing Simulation Passes


!-   ===========  ALL OBJECTS IN CLASS: BUILDING ===========

Building,
    Building 1,              !- Name
    0,                       !- North Axis {deg}
    City,                    !- Terrain
    0.04,                    !- Loads Convergence Tolerance Value {W}
    0.4,                     !- Temperature Convergence Tolerance Value {deltaC}
    FullInteriorAndExterior, !- Solar Distribution
    25,                      !- Maximum Number of Warmup Days
    15;                      !- Minimum Number of Warmup Days


!-   ===========  ALL OBJECTS IN CLASS: SURFACECONVECTIONALGORITHM:INSIDE ===========

SurfaceConvectionAlgorithm:Inside,
    TARP;                    !- Algorithm


!-   ===========  ALL OBJECTS IN CLASS: SURFACECONVECTIONALGORITHM:OUTSIDE ===========

SurfaceConvectionAlgorithm:Outside,
    DOE-2;                   !- Algorithm


!-   ===========  ALL OBJECTS IN CLASS: HEATBALANCEALGORITHM ===========

HeatBalanceAlgorithm,
    ConductionTransferFunction,  !- Algorithm
    200,                     !- Surface Temperature Upper Limit {C}
    0.1,                     !- Minimum Surface Convection Heat Transfer Coefficient Value {W/m2-K}
    1000;                    !- Maximum Surface Convection Heat Transfer Coefficient Value {W/m2-K}


!-   ===========  ALL OBJECTS IN CLASS: TIMESTEP ===========

Timestep,
    6;                       !- Number of Timesteps per Hour


!-   ===========  ALL OBJECTS IN CLASS: SIZINGPERIOD:WEATHERFILEDAYS ===========

SizingPeriod:WeatherFileDays,
    DesignDayWinter,         !- Name
    6,                       !- Begin Month
    1,                       !- Begin Day of Month
    6,                       !- End Month
    1,                       !- End Day of Month
    Monday,                  !- Day of Week for Start Day
    Yes,                     !- Use Weather File Daylight Saving Period
    Yes;                     !- Use Weather File Rain and Snow Indicators

SizingPeriod:WeatherFileDays,
    DesignDaySummer,         !- Name
    1,                       !- Begin Month
    1,                       !- Begin Day of Month
    1,                       !- End Month
    1,                       !- End Day of Month
    Monday,                  !- Day of Week for Start Day
    Yes,                     !- Use Weather File Daylight Saving Period
    Yes;                     !- Use Weather File Rain and Snow Indicators


!-   ===========  ALL OBJECTS IN CLASS: RUNPERIOD ===========

RunPeriod,
    Run Period 1,            !- Name
    6,                       !- Begin Month
    21,                      !- Begin Day of Month
    ,                        !- Begin Year
    6,                       !- End Month
    22,                      !- End Day of Month
    ,                        !- End Year
    Sunday,                  !- Day of Week for Start Day
    No,                      !- Use Weather File Holidays and Special Days
    No,                      !- Use Weather File Daylight Saving Period
    No,                      !- Apply Weekend Holiday Rule
    Yes,                     !- Use Weather File Rain Indicators
    Yes,                     !- Use Weather File Snow Indicators
    No;                      !- Treat Weather as Actual


!-   ===========  ALL OBJECTS IN CLASS: SCHEDULETYPELIMITS ===========

ScheduleTypeLimits,
    Any Number;              !- Name

ScheduleTypeLimits,
    AviabilityType,          !- Name
    0,                       !- Lower Limit Value
    1,                       !- Upper Limit Value
    Discrete,                !- Numeric Type
    Availability;            !- Unit Type

ScheduleTypeLimits,
    Comfort_range,           !- Name
    -4,                      !- Lower Limit Value
    4,                       !- Upper Limit Value
    Continuous,              !- Numeric Type
    Dimensionless;           !- Unit Type

ScheduleTypeLimits,
    Control Type,            !- Name
    0,                       !- Lower Limit Value
    4,                       !- Upper Limit Value
    Discrete,                !- Numeric Type
    Dimensionless;           !- Unit Type

ScheduleTypeLimits,
    Fraction,                !- Name
    0,                       !- Lower Limit Value
    1,                       !- Upper Limit Value
    Continuous;              !- Numeric Type

ScheduleTypeLimits,
    On/Off,                  !- Name
    0,                       !- Lower Limit Value
    1,                       !- Upper Limit Value
    Discrete,                !- Numeric Type
    Dimensionless;           !- Unit Type

ScheduleTypeLimits,
    Temperature,             !- Name
    -60,                     !- Lower Limit Value
    200,                     !- Upper Limit Value
    Continuous,              !- Numeric Type
    Temperature;             !- Unit Type


!-   ===========  ALL OBJECTS IN CLASS: SCHEDULE:COMPACT ===========

Schedule:Compact,
    cooling_setpoint,        !- Name
    Temperature,             !- Schedule Type Limits Name
    Through: 12/31,          !- Field 1
    For: Alldays,            !- Field 2
    Until: 24:00,            !- Field 3
    25.0;                    !- Field 4

Schedule:Compact,
    heating_setpoint,        !- Name
    Temperature,             !- Schedule Type Limits Name
    Through: 12/31,          !- Field 1
    For: Alldays,            !- Field 2
    Until: 24:00,            !- Field 3
    24.0;                    !- Field 4

Schedule:Compact,
    occupation,              !- Name
    Any Number,              !- Schedule Type Limits Name
    Through: 12/31,          !- Field 1
    For: Alldays,            !- Field 2
    Until: 07:00,            !- Field 3
     0,                      !- Field 4
    Until: 19:00,            !- Field 5
     1,                      !- Field 6
    Until: 24:00,            !- Field 7
     0;                      !- Field 8


!-   ===========  ALL OBJECTS IN CLASS: SCHEDULE:CONSTANT ===========

Schedule:Constant,
    Always Off,              !- Name
    On/Off,                  !- Schedule Type Limits Name
    0;                       !- Hourly Value

Schedule:Constant,
    Always On,               !- Name
    On/Off,                  !- Schedule Type Limits Name
    1;                       !- Hourly Value

Schedule:Constant,
    HVAC_OnOff,              !- Name
    AviabilityType,          !- Schedule Type Limits Name
    1;                       !- Hourly Value

Schedule:Constant,
    Work Efficiency,         !- Name
    Fraction,                !- Schedule Type Limits Name
    0;                       !- Hourly Value

Schedule:Constant,
    ZONE CONTROL TYPE SCHED, !- Name
    Any Number,              !- Schedule Type Limits Name
    4;                       !- Hourly Value

Schedule:Constant,
    air_velocity,            !- Name
    Any Number,              !- Schedule Type Limits Name
    0.1;                     !- Hourly Value

Schedule:Constant,
    occupancy_schedule,      !- Name
    Any Number,              !- Schedule Type Limits Name
    1;                       !- Hourly Value

Schedule:Constant,
    occupants activity schedule,  !- Name
    Any Number,              !- Schedule Type Limits Name
    100;                     !- Hourly Value

Schedule:Constant,
    shading_control,         !- Name
    Fraction,                !- Schedule Type Limits Name
    0;                       !- Hourly Value


!-   ===========  ALL OBJECTS IN CLASS: SCHEDULE:FILE ===========

Schedule:File,
    clothes_dryer,           !- Name
    Fraction,                !- Schedule Type Limits Name
    C:/Users/grhen/Documents/GitHub2/eprllib/src/eprllib/examples/example_thermostat_files/evaluation/allways_off.csv,  !- File Name
    7,                       !- Column Number
    1,                       !- Rows to Skip at Top
    8760,                    !- Number of Hours of Data
    Comma,                   !- Column Separator
    No,                      !- Interpolate to Timestep
    10,                      !- Minutes per Item
    Yes;                     !- Adjust Schedule for Daylight Savings

Schedule:File,
    clothes_washer,          !- Name
    Fraction,                !- Schedule Type Limits Name
    C:/Users/grhen/Documents/GitHub2/eprllib/src/eprllib/examples/example_thermostat_files/evaluation/allways_off.csv,  !- File Name
    6,                       !- Column Number
    1,                       !- Rows to Skip at Top
    8760,                    !- Number of Hours of Data
    Comma,                   !- Column Separator
    No,                      !- Interpolate to Timestep
    10,                      !- Minutes per Item
    Yes;                     !- Adjust Schedule for Daylight Savings

Schedule:File,
    cooking_range,           !- Name
    Fraction,                !- Schedule Type Limits Name
    C:/Users/grhen/Documents/GitHub2/eprllib/src/eprllib/examples/example_thermostat_files/evaluation/allways_off.csv,  !- File Name
    4,                       !- Column Number
    1,                       !- Rows to Skip at Top
    8760,                    !- Number of Hours of Data
    Comma,                   !- Column Separator
    No,                      !- Interpolate to Timestep
    10,                      !- Minutes per Item
    Yes;                     !- Adjust Schedule for Daylight Savings

Schedule:File,
    dishwasher,              !- Name
    Fraction,                !- Schedule Type Limits Name
    C:/Users/grhen/Documents/GitHub2/eprllib/src/eprllib/examples/example_thermostat_files/evaluation/allways_off.csv,  !- File Name
    5,                       !- Column Number
    1,                       !- Rows to Skip at Top
    8760,                    !- Number of Hours of Data
    Comma,                   !- Column Separator
    No,                      !- Interpolate to Timestep
    10,                      !- Minutes per Item
    Yes;                     !- Adjust Schedule for Daylight Savings

Schedule:File,
    hot_water_fixtures,      !- Name
    Fraction,                !- Schedule Type Limits Name
    C:/Users/grhen/Documents/GitHub2/eprllib/src/eprllib/examples/example_thermostat_files/evaluation/allways_off.csv,  !- File Name
    11,                      !- Column Number
    1,                       !- Rows to Skip at Top
    8760,                    !- Number of Hours of Data
    Comma,                   !- Column Separator
    No,                      !- Interpolate to Timestep
    10,                      !- Minutes per Item
    Yes;                     !- Adjust Schedule for Daylight Savings

Schedule:File,
    lighting_interior,       !- Name
    Fraction,                !- Schedule Type Limits Name
    C:/Users/grhen/Documents/GitHub2/eprllib/src/eprllib/examples/example_thermostat_files/evaluation/allways_off.csv,  !- File Name
    1,                       !- Column Number
    1,                       !- Rows to Skip at Top
    8760,                    !- Number of Hours of Data
    Comma,                   !- Column Separator
    No,                      !- Interpolate to Timestep
    10,                      !- Minutes per Item
    Yes;                     !- Adjust Schedule for Daylight Savings

Schedule:File,
    plug_loads_other,        !- Name
    Fraction,                !- Schedule Type Limits Name
    C:/Users/grhen/Documents/GitHub2/eprllib/src/eprllib/examples/example_thermostat_files/evaluation/allways_off.csv,  !- File Name
    8,                       !- Column Number
    1,                       !- Rows to Skip at Top
    8760,                    !- Number of Hours of Data
    Comma,                   !- Column Separator
    No,                      !- Interpolate to Timestep
    10,                      !- Minutes per Item
    Yes;                     !- Adjust Schedule for Daylight Savings


!-   ===========  ALL OBJECTS IN CLASS: MATERIAL ===========

Material,
    Contrapiso,              !- Name
    Rough,                   !- Roughness
    0.5,                     !- Thickness {m}
    1.16,                    !- Conductivity {W/m-K}
    2000,                    !- Density {kg/m3}
    2500,                    !- Specific Heat {J/kg-K}
    0.93,                    !- Thermal Absorptance
    0.3,                     !- Solar Absorptance
    0.7;                     !- Visible Absorptance

Material,
    Piso_Madera,             !- Name
    MediumSmooth,            !- Roughness
    0.02,                    !- Thickness {m}
    0.34,                    !- Conductivity {W/m-K}
    1200,                    !- Density {kg/m3}
    1380,                    !- Specific Heat {J/kg-K}
    0.9,                     !- Thermal Absorptance
    0.7,                     !- Solar Absorptance
    0.7;                     !- Visible Absorptance

Material,
    internal_mass,           !- Name
    Rough,                   !- Roughness
    0.25,                    !- Thickness {m}
    0.93,                    !- Conductivity {W/m-K}
    2500,                    !- Density {kg/m3}
    2500,                    !- Specific Heat {J/kg-K}
    0.9,                     !- Thermal Absorptance
    0.7,                     !- Solar Absorptance
    0.7;                     !- Visible Absorptance

Material,
    roof_exterior,           !- Name
    Smooth,                  !- Roughness
    0.15,                    !- Thickness {m}
    0.018,                   !- Conductivity {W/m-K}
    35,                      !- Density {kg/m3}
    1200.0,                  !- Specific Heat {J/kg-K}
    0.5,                     !- Thermal Absorptance
    0.7,                     !- Solar Absorptance
    0.7;                     !- Visible Absorptance

Material,
    roof_inner,              !- Name
    Rough,                   !- Roughness
    0.1,                     !- Thickness {m}
    0.9,                     !- Conductivity {W/m-K}
    1500.0,                  !- Density {kg/m3}
    1000.0,                  !- Specific Heat {J/kg-K}
    0.8,                     !- Thermal Absorptance
    0.5,                     !- Solar Absorptance
    0.5;                     !- Visible Absorptance

Material,
    wall_exterior,           !- Name
    Rough,                   !- Roughness
    0.1,                     !- Thickness {m}
    0.8,                     !- Conductivity {W/m-K}
    1500.0,                  !- Density {kg/m3}
    1200.0,                  !- Specific Heat {J/kg-K}
    0.7,                     !- Thermal Absorptance
    0.7,                     !- Solar Absorptance
    0.7;                     !- Visible Absorptance

Material,
    wall_inner,              !- Name
    VerySmooth,              !- Roughness
    0.25,                    !- Thickness {m}
    0.9,                     !- Conductivity {W/m-K}
    2000.0,                  !- Density {kg/m3}
    1000.0,                  !- Specific Heat {J/kg-K}
    0.9,                     !- Thermal Absorptance
    0.5,                     !- Solar Absorptance
    0.5;                     !- Visible Absorptance

Material,
    wall_inter,              !- Name
    MediumRough,             !- Roughness
    0.1,                     !- Thickness {m}
    0.018,                   !- Conductivity {W/m-K}
    35.0,                    !- Density {kg/m3}
    1200.0,                  !- Specific Heat {J/kg-K}
    0.5,                     !- Thermal Absorptance
    0.3,                     !- Solar Absorptance
    0.3;                     !- Visible Absorptance


!-   ===========  ALL OBJECTS IN CLASS: WINDOWMATERIAL:SIMPLEGLAZINGSYSTEM ===========

WindowMaterial:SimpleGlazingSystem,
    WindowMaterial,          !- Name
    1.0,                     !- U-Factor {W/m2-K}
    0.6;                     !- Solar Heat Gain Coefficient


!-   ===========  ALL OBJECTS IN CLASS: WINDOWMATERIAL:SHADE ===========

WindowMaterial:Shade,
    Aluminio,                !- Name
    0,                       !- Solar Transmittance {dimensionless}
    0.6,                     !- Solar Reflectance {dimensionless}
    0,                       !- Visible Transmittance {dimensionless}
    0.65,                    !- Visible Reflectance {dimensionless}
    0.1,                     !- Infrared Hemispherical Emissivity {dimensionless}
    0,                       !- Infrared Transmittance {dimensionless}
    0.01,                    !- Thickness {m}
    205,                     !- Conductivity {W/m-K}
    0.05,                    !- Shade to Glass Distance {m}
    0.5,                     !- Top Opening Multiplier
    0.5,                     !- Bottom Opening Multiplier
    0.5,                     !- Left-Side Opening Multiplier
    0.5,                     !- Right-Side Opening Multiplier
    0.2;                     !- Airflow Permeability {dimensionless}

WindowMaterial:Shade,
    Madera,                  !- Name
    0.05,                    !- Solar Transmittance {dimensionless}
    0.25,                    !- Solar Reflectance {dimensionless}
    0.05,                    !- Visible Transmittance {dimensionless}
    0.3,                     !- Visible Reflectance {dimensionless}
    0.9,                     !- Infrared Hemispherical Emissivity {dimensionless}
    0,                       !- Infrared Transmittance {dimensionless}
    3,                       !- Thickness {m}
    0.15,                    !- Conductivity {W/m-K}
    0.05,                    !- Shade to Glass Distance {m}
    0.5,                     !- Top Opening Multiplier
    0.5,                     !- Bottom Opening Multiplier
    0.5,                     !- Left-Side Opening Multiplier
    0.5,                     !- Right-Side Opening Multiplier
    0.5;                     !- Airflow Permeability {dimensionless}

WindowMaterial:Shade,
    PVC,                     !- Name
    0.05,                    !- Solar Transmittance {dimensionless}
    0.3,                     !- Solar Reflectance {dimensionless}
    0.05,                    !- Visible Transmittance {dimensionless}
    0.4,                     !- Visible Reflectance {dimensionless}
    0.85,                    !- Infrared Hemispherical Emissivity {dimensionless}
    0,                       !- Infrared Transmittance {dimensionless}
    2.5,                     !- Thickness {m}
    0.17,                    !- Conductivity {W/m-K}
    0.05,                    !- Shade to Glass Distance {m}
    0.5,                     !- Top Opening Multiplier
    0.5,                     !- Bottom Opening Multiplier
    0.5,                     !- Left-Side Opening Multiplier
    0.5,                     !- Right-Side Opening Multiplier
    0.2;                     !- Airflow Permeability {dimensionless}


!-   ===========  ALL OBJECTS IN CLASS: CONSTRUCTION ===========

Construction,
    Floor,                   !- Name
    Contrapiso,              !- Outside Layer
    Piso_Madera;             !- Layer 2

Construction,
    InternalMass,            !- Name
    internal_mass;           !- Outside Layer

Construction,
    Roof,                    !- Name
    roof_exterior,           !- Outside Layer
    roof_inner;              !- Layer 2

Construction,
    Wall,                    !- Name
    wall_exterior,           !- Outside Layer
    wall_inter,              !- Layer 2
    wall_inner;              !- Layer 3

Construction,
    Window,                  !- Name
    WindowMaterial;          !- Outside Layer


!-   ===========  ALL OBJECTS IN CLASS: GLOBALGEOMETRYRULES ===========

GlobalGeometryRules,
    UpperLeftCorner,         !- Starting Vertex Position
    Counterclockwise,        !- Vertex Entry Direction
    Relative,                !- Coordinate System
    Relative,                !- Daylighting Reference Point Coordinate System
    Relative;                !- Rectangular Surface Coordinate System


!-   ===========  ALL OBJECTS IN CLASS: ZONE ===========

Zone,
    Thermal Zone,            !- Name
    0,                       !- Direction of Relative North {deg}
    0,                       !- X Origin {m}
    0,                       !- Y Origin {m}
    0,                       !- Z Origin {m}
    ,                        !- Type
    1,                       !- Multiplier
    ,                        !- Ceiling Height {m}
    ,                        !- Volume {m3}
    ,                        !- Floor Area {m2}
    ,                        !- Zone Inside Convection Algorithm
    ,                        !- Zone Outside Convection Algorithm
    Yes;                     !- Part of Total Floor Area


!-   ===========  ALL OBJECTS IN CLASS: BUILDINGSURFACE:DETAILED ===========

BuildingSurface:Detailed,
    floor,                   !- Name
    Floor,                   !- Surface Type
    Floor,                   !- Construction Name
    Thermal Zone,            !- Zone Name
    ,                        !- Space Name
    Ground,                  !- Outside Boundary Condition
    ,                        !- Outside Boundary Condition Object
    NoSun,                   !- Sun Exposure
    NoWind,                  !- Wind Exposure
    ,                        !- View Factor to Ground
    ,                        !- Number of Vertices
    4.0,                     !- Vertex 1 X-coordinate {m}
    5.0,                     !- Vertex 1 Y-coordinate {m}
    0.0,                     !- Vertex 1 Z-coordinate {m}
    4.0,                     !- Vertex 2 X-coordinate {m}
    0.0,                     !- Vertex 2 Y-coordinate {m}
    0.0,                     !- Vertex 2 Z-coordinate {m}
    0.0,                     !- Vertex 3 X-coordinate {m}
    0.0,                     !- Vertex 3 Y-coordinate {m}
    0.0,                     !- Vertex 3 Z-coordinate {m}
    0.0,                     !- Vertex 4 X-coordinate {m}
    5.0,                     !- Vertex 4 Y-coordinate {m}
    0.0;                     !- Vertex 4 Z-coordinate {m}

BuildingSurface:Detailed,
    roof,                    !- Name
    Roof,                    !- Surface Type
    Roof,                    !- Construction Name
    Thermal Zone,            !- Zone Name
    ,                        !- Space Name
    Outdoors,                !- Outside Boundary Condition
    ,                        !- Outside Boundary Condition Object
    SunExposed,              !- Sun Exposure
    WindExposed,             !- Wind Exposure
    ,                        !- View Factor to Ground
    ,                        !- Number of Vertices
    4.0,                     !- Vertex 1 X-coordinate {m}
    0.0,                     !- Vertex 1 Y-coordinate {m}
    2.7,                     !- Vertex 1 Z-coordinate {m}
    4.0,                     !- Vertex 2 X-coordinate {m}
    5.0,                     !- Vertex 2 Y-coordinate {m}
    2.7,                     !- Vertex 2 Z-coordinate {m}
    0.0,                     !- Vertex 3 X-coordinate {m}
    5.0,                     !- Vertex 3 Y-coordinate {m}
    2.7,                     !- Vertex 3 Z-coordinate {m}
    0.0,                     !- Vertex 4 X-coordinate {m}
    0.0,                     !- Vertex 4 Y-coordinate {m}
    2.7;                     !- Vertex 4 Z-coordinate {m}

BuildingSurface:Detailed,
    wall_east,               !- Name
    Wall,                    !- Surface Type
    Wall,                    !- Construction Name
    Thermal Zone,            !- Zone Name
    ,                        !- Space Name
    Outdoors,                !- Outside Boundary Condition
    ,                        !- Outside Boundary Condition Object
    SunExposed,              !- Sun Exposure
    WindExposed,             !- Wind Exposure
    ,                        !- View Factor to Ground
    ,                        !- Number of Vertices
    4.0,                     !- Vertex 1 X-coordinate {m}
    0.0,                     !- Vertex 1 Y-coordinate {m}
    2.7,                     !- Vertex 1 Z-coordinate {m}
    4.0,                     !- Vertex 2 X-coordinate {m}
    0.0,                     !- Vertex 2 Y-coordinate {m}
    0.0,                     !- Vertex 2 Z-coordinate {m}
    4.0,                     !- Vertex 3 X-coordinate {m}
    5.0,                     !- Vertex 3 Y-coordinate {m}
    0.0,                     !- Vertex 3 Z-coordinate {m}
    4.0,                     !- Vertex 4 X-coordinate {m}
    5.0,                     !- Vertex 4 Y-coordinate {m}
    2.7;                     !- Vertex 4 Z-coordinate {m}

BuildingSurface:Detailed,
    wall_north,              !- Name
    Wall,                    !- Surface Type
    Wall,                    !- Construction Name
    Thermal Zone,            !- Zone Name
    ,                        !- Space Name
    Outdoors,                !- Outside Boundary Condition
    ,                        !- Outside Boundary Condition Object
    SunExposed,              !- Sun Exposure
    WindExposed,             !- Wind Exposure
    ,                        !- View Factor to Ground
    ,                        !- Number of Vertices
    0.0,                     !- Vertex 1 X-coordinate {m}
    0.0,                     !- Vertex 1 Y-coordinate {m}
    2.7,                     !- Vertex 1 Z-coordinate {m}
    0.0,                     !- Vertex 2 X-coordinate {m}
    0.0,                     !- Vertex 2 Y-coordinate {m}
    0.0,                     !- Vertex 2 Z-coordinate {m}
    4.0,                     !- Vertex 3 X-coordinate {m}
    0.0,                     !- Vertex 3 Y-coordinate {m}
    0.0,                     !- Vertex 3 Z-coordinate {m}
    4.0,                     !- Vertex 4 X-coordinate {m}
    0.0,                     !- Vertex 4 Y-coordinate {m}
    2.7;                     !- Vertex 4 Z-coordinate {m}

BuildingSurface:Detailed,
    wall_south,              !- Name
    Wall,                    !- Surface Type
    Wall,                    !- Construction Name
    Thermal Zone,            !- Zone Name
    ,                        !- Space Name
    Outdoors,                !- Outside Boundary Condition
    ,                        !- Outside Boundary Condition Object
    SunExposed,              !- Sun Exposure
    WindExposed,             !- Wind Exposure
    ,                        !- View Factor to Ground
    ,                        !- Number of Vertices
    4.0,                     !- Vertex 1 X-coordinate {m}
    5.0,                     !- Vertex 1 Y-coordinate {m}
    2.7,                     !- Vertex 1 Z-coordinate {m}
    4.0,                     !- Vertex 2 X-coordinate {m}
    5.0,                     !- Vertex 2 Y-coordinate {m}
    0.0,                     !- Vertex 2 Z-coordinate {m}
    0.0,                     !- Vertex 3 X-coordinate {m}
    5.0,                     !- Vertex 3 Y-coordinate {m}
    0.0,                     !- Vertex 3 Z-coordinate {m}
    0.0,                     !- Vertex 4 X-coordinate {m}
    5.0,                     !- Vertex 4 Y-coordinate {m}
    2.7;                     !- Vertex 4 Z-coordinate {m}

BuildingSurface:Detailed,
    wall_west,               !- Name
    Wall,                    !- Surface Type
    Wall,                    !- Construction Name
    Thermal Zone,            !- Zone Name
    ,                        !- Space Name
    Outdoors,                !- Outside Boundary Condition
    ,                        !- Outside Boundary Condition Object
    SunExposed,              !- Sun Exposure
    WindExposed,             !- Wind Exposure
    ,                        !- View Factor to Ground
    ,                        !- Number of Vertices
    0.0,                     !- Vertex 1 X-coordinate {m}
    5.0,                     !- Vertex 1 Y-coordinate {m}
    2.7,                     !- Vertex 1 Z-coordinate {m}
    0.0,                     !- Vertex 2 X-coordinate {m}
    5.0,                     !- Vertex 2 Y-coordinate {m}
    0.0,                     !- Vertex 2 Z-coordinate {m}
    0.0,                     !- Vertex 3 X-coordinate {m}
    0.0,                     !- Vertex 3 Y-coordinate {m}
    0.0,                     !- Vertex 3 Z-coordinate {m}
    0.0,                     !- Vertex 4 X-coordinate {m}
    0.0,                     !- Vertex 4 Y-coordinate {m}
    2.7;                     !- Vertex 4 Z-coordinate {m}


!-   ===========  ALL OBJECTS IN CLASS: FENESTRATIONSURFACE:DETAILED ===========

FenestrationSurface:Detailed,
    window_north,            !- Name
    Window,                  !- Surface Type
    Window,                  !- Construction Name
    wall_north,              !- Building Surface Name
    ,                        !- Outside Boundary Condition Object
    ,                        !- View Factor to Ground
    ,                        !- Frame and Divider Name
    ,                        !- Multiplier
    ,                        !- Number of Vertices
    0.5857864376269049,      !- Vertex 1 X-coordinate {m}
    0,                       !- Vertex 1 Y-coordinate {m}
    2.3045941546018396,      !- Vertex 1 Z-coordinate {m}
    0.5857864376269049,      !- Vertex 2 X-coordinate {m}
    0,                       !- Vertex 2 Y-coordinate {m}
    0.3954058453981608,      !- Vertex 2 Z-coordinate {m}
    3.414213562373095,       !- Vertex 3 X-coordinate {m}